/*--------------------------------*- C++ -*----------------------------------*\
| Zirconia (3Y-TZP).                                                          |
\*---------------------------------------------------------------------------*/
FoamFile
{
    version     2.0;
    format      ascii;
    class       dictionary;
    object      mechanicalProperties;
}
// * * * * * * * * * * * * * * * * * * * * * * * * * * * * * * * * * * * * * //

rho
{
    type        uniform;
    value       6050;
}

nu
{
    type        uniform;
    value       0.30;
}

E
{
    type        uniform;
    value       2.0e+11;
}

planeStress     no;

// ************************************************************************* //
